CHEMBL491298
                    3D
 Structure written by MMmdl.
 61 63  0  0  1  0            999 V2000
    0.0499    1.2668    0.5003 C   0  0  0  0  0  0
    1.2773    1.9582    0.5348 C   0  0  0  0  0  0
    2.4989    1.2626    0.4026 C   0  0  0  0  0  0
    2.4740   -0.1439    0.2560 C   0  0  0  0  0  0
    1.2481   -0.8371    0.2212 C   0  0  0  0  0  0
    0.0315   -0.1344    0.3428 C   0  0  0  0  0  0
   -1.2865   -0.8811    0.2975 C   0  0  0  0  0  0
   -1.8105   -1.0291   -1.1378 C   0  0  0  0  0  0
   -3.1445   -1.7866   -1.2105 C   0  0  0  0  0  0
   -3.6446   -1.9515   -2.6532 C   0  0  0  0  0  0
   -4.9782   -2.7086   -2.7349 C   0  0  0  0  0  0
   -5.4584   -2.9022   -4.1803 C   0  0  0  0  0  0
   -6.7465   -3.6507   -4.2722 C   0  0  0  0  0  0
   -7.9985   -3.1411   -4.5118 C   0  0  0  0  0  0
   -8.9994   -4.1529   -4.5302 C   0  0  0  0  0  0
  -10.4596   -4.0132   -4.7555 C   0  0  0  0  0  0
  -11.0171   -2.9375   -4.9678 O   0  0  0  0  0  0
  -11.1343   -5.1792   -4.7084 N   0  0  0  0  0  0
  -12.1240   -5.1144   -4.8586 H   0  0  0  0  0  0
  -10.5207   -6.4207   -4.4676 C   0  0  0  0  0  0
   -9.2478   -6.5923   -4.2657 N   0  0  0  0  0  0
   -8.5233   -5.4177   -4.3072 C   0  0  0  0  0  0
   -6.7977   -5.3887   -4.0653 S   0  0  0  0  0  0
  -11.4077   -7.4702   -4.4636 N   0  0  0  0  0  0
    3.8016    2.0144    0.4623 C   0  0  0  0  0  0
    3.8820    3.0757    1.0836 O   0  0  0  0  0  0
    4.7924    1.4859   -0.2549 N   0  0  0  0  0  0
    6.1002    2.0409   -0.5539 C   0  0  1  0  0  0
    6.1087    3.1152   -0.3646 H   0  0  0  0  0  0
    7.1996    1.3492    0.2939 C   0  0  0  0  0  0
    7.0442    1.5324    1.8257 C   0  0  0  0  0  0
    8.1541    0.9019    2.6746 C   0  0  0  0  0  0
    9.0262    0.2029    2.1118 O   0  0  0  0  0  0
    8.1078    1.1211    3.9062 O   0  5  0  0  0  0
    6.2581    1.8245   -2.0700 C   0  0  0  0  0  0
    6.9097    2.6667   -2.7242 O   0  0  0  0  0  0
    5.6451    0.8441   -2.5673 O   0  5  0  0  0  0
   -0.8727    1.8192    0.5942 H   0  0  0  0  0  0
    1.2919    3.0316    0.6600 H   0  0  0  0  0  0
    3.4005   -0.6955    0.1720 H   0  0  0  0  0  0
    1.2525   -1.9101    0.0999 H   0  0  0  0  0  0
   -1.1506   -1.8631    0.7527 H   0  0  0  0  0  0
   -2.0151   -0.3544    0.9149 H   0  0  0  0  0  0
   -1.9251   -0.0391   -1.5817 H   0  0  0  0  0  0
   -1.0614   -1.5473   -1.7384 H   0  0  0  0  0  0
   -3.0265   -2.7695   -0.7522 H   0  0  0  0  0  0
   -3.8943   -1.2577   -0.6208 H   0  0  0  0  0  0
   -3.7540   -0.9688   -3.1141 H   0  0  0  0  0  0
   -2.8900   -2.4814   -3.2367 H   0  0  0  0  0  0
   -4.8710   -3.6832   -2.2568 H   0  0  0  0  0  0
   -5.7401   -2.1700   -2.1696 H   0  0  0  0  0  0
   -5.5681   -1.9303   -4.6630 H   0  0  0  0  0  0
   -4.6962   -3.4357   -4.7497 H   0  0  0  0  0  0
   -8.2358   -2.0996   -4.6726 H   0  0  0  0  0  0
  -12.4020   -7.4171   -4.6105 H   0  0  0  0  0  0
  -11.0786   -8.4108   -4.3017 H   0  0  0  0  0  0
    4.5943    0.7617   -0.9384 H   0  0  0  0  0  0
    7.2276    0.2843    0.0593 H   0  0  0  0  0  0
    8.1716    1.7392   -0.0102 H   0  0  0  0  0  0
    7.0030    2.5943    2.0650 H   0  0  0  0  0  0
    6.1023    1.1016    2.1607 H   0  0  0  0  0  0
  1  6  2  0  0  0
  1  2  1  0  0  0
  1 38  1  0  0  0
  2  3  2  0  0  0
  2 39  1  0  0  0
  3  4  1  0  0  0
  3 25  1  0  0  0
  4  5  2  0  0  0
  4 40  1  0  0  0
  5  6  1  0  0  0
  5 41  1  0  0  0
  6  7  1  0  0  0
  7  8  1  0  0  0
  7 42  1  0  0  0
  7 43  1  0  0  0
  8  9  1  0  0  0
  8 44  1  0  0  0
  8 45  1  0  0  0
  9 10  1  0  0  0
  9 46  1  0  0  0
  9 47  1  0  0  0
 10 11  1  0  0  0
 10 48  1  0  0  0
 10 49  1  0  0  0
 11 12  1  0  0  0
 11 50  1  0  0  0
 11 51  1  0  0  0
 12 13  1  0  0  0
 12 52  1  0  0  0
 12 53  1  0  0  0
 13 23  1  0  0  0
 13 14  2  0  0  0
 14 15  1  0  0  0
 14 54  1  0  0  0
 15 22  2  0  0  0
 15 16  1  0  0  0
 16 17  2  0  0  0
 16 18  1  0  0  0
 18 19  1  0  0  0
 18 20  1  0  0  0
 20 21  2  0  0  0
 20 24  1  0  0  0
 21 22  1  0  0  0
 22 23  1  0  0  0
 24 55  1  0  0  0
 24 56  1  0  0  0
 25 26  2  0  0  0
 25 27  1  0  0  0
 27 28  1  0  0  0
 27 57  1  0  0  0
 28 29  1  0  0  0
 28 30  1  0  0  0
 28 35  1  0  0  0
 30 31  1  0  0  0
 30 58  1  0  0  0
 30 59  1  0  0  0
 31 32  1  0  0  0
 31 60  1  0  0  0
 31 61  1  0  0  0
 32 33  2  0  0  0
 32 34  1  0  0  0
 35 36  2  0  0  0
 35 37  1  0  0  0
M  CHG  2  34  -1  37  -1
M  END
> <s_st_Chirality_1>
28_S_27_35_30_29

> <r_mmffld_Potential_Energy-OPLS_2005>
-24.9833

> <r_mmffld_RMS_Derivative-OPLS_2005>
0.0467572

> <b_mmffld_Minimization_Converged-OPLS_2005>
1

> <i_user_TOTAL_CHARGE>
-2

$$$$
CHEMBL309415
                    3D
 Structure written by MMmdl.
 53 55  0  0  1  0            999 V2000
    0.9896    2.9526   -1.2979 C   0  0  0  0  0  0
    2.0882    3.2988   -2.1452 C   0  0  0  0  0  0
    2.7044    2.1845   -2.6528 C   0  0  0  0  0  0
    1.8929    0.7163   -2.2245 S   0  0  0  0  0  0
    0.8560    1.5968   -1.1272 C   0  0  0  0  0  0
    0.1005    0.8311   -0.1115 C   0  0  0  0  0  0
   -0.6887    1.4128    0.6344 O   0  0  0  0  0  0
    0.4418   -0.4539    0.0193 N   0  0  0  0  0  0
    0.7860   -1.1177    1.2633 C   0  0  1  0  0  0
    0.6519   -0.4672    2.1286 H   0  0  0  0  0  0
   -0.0202   -2.4346    1.4093 C   0  0  0  0  0  0
   -1.5417   -2.2157    1.6122 C   0  0  0  0  0  0
   -2.3579   -3.4850    1.8833 C   0  0  0  0  0  0
   -1.7785   -4.5941    1.8786 O   0  0  0  0  0  0
   -3.5811   -3.3267    2.0990 O   0  5  0  0  0  0
    2.2945   -1.4007    1.0516 C   0  0  0  0  0  0
    2.6621   -1.6455   -0.1247 O   0  0  0  0  0  0
    3.0776   -1.2661    2.0133 O   0  5  0  0  0  0
    4.0718    2.1859   -3.2178 C   0  0  0  0  0  0
    4.8500    3.2640   -2.4449 C   0  0  2  0  0  0
    4.1995    4.6361   -2.7379 C   0  0  0  0  0  0
    2.7024    4.6717   -2.2967 C   0  0  0  0  0  0
    6.3763    3.1584   -2.6035 C   0  0  0  0  0  0
    7.0421    1.6914   -1.7318 S   0  0  0  0  0  0
    6.3767    1.8196   -0.0788 C   0  0  0  0  0  0
    5.4325    1.0095    0.4715 C   0  0  0  0  0  0
    4.9043    1.2693    1.7342 N   0  0  0  0  0  0
    5.3193    2.3035    2.3918 C   0  0  0  0  0  0
    6.3008    3.1583    1.8768 N   0  0  0  0  0  0
    6.8737    2.9936    0.6637 C   0  0  0  0  0  0
    7.7234    3.8009    0.2737 O   0  0  0  0  0  0
    4.8450    2.6599    3.6320 N   0  0  0  0  0  0
    4.8604   -0.1047   -0.1155 N   0  0  0  0  0  0
    0.4394    3.6797   -0.7204 H   0  0  0  0  0  0
    1.1775   -0.7746   -0.6120 H   0  0  0  0  0  0
    0.1466   -3.0753    0.5425 H   0  0  0  0  0  0
    0.3705   -2.9897    2.2630 H   0  0  0  0  0  0
   -1.7042   -1.5377    2.4487 H   0  0  0  0  0  0
   -1.9649   -1.7299    0.7342 H   0  0  0  0  0  0
    4.5232    1.2031   -3.0765 H   0  0  0  0  0  0
    4.0529    2.3842   -4.2891 H   0  0  0  0  0  0
    4.6572    3.1036   -1.3851 H   0  0  0  0  0  0
    4.7485    5.4428   -2.2518 H   0  0  0  0  0  0
    4.2622    4.8246   -3.8099 H   0  0  0  0  0  0
    2.1209    5.2751   -2.9936 H   0  0  0  0  0  0
    2.6405    5.1842   -1.3362 H   0  0  0  0  0  0
    6.6540    3.1102   -3.6560 H   0  0  0  0  0  0
    6.8569    4.0457   -2.1924 H   0  0  0  0  0  0
    4.1392    2.1028    4.0915 H   0  0  0  0  0  0
    5.1499    3.4452    4.1835 H   0  0  0  0  0  0
    5.1371   -0.4336   -1.0215 H   0  0  0  0  0  0
    3.9761   -0.5691    0.1770 H   0  0  0  0  0  0
    6.6199    3.9514    2.4031 H   0  0  0  0  0  0
  1  5  2  0  0  0
  1  2  1  0  0  0
  1 34  1  0  0  0
  2 22  1  0  0  0
  2  3  2  0  0  0
  3  4  1  0  0  0
  3 19  1  0  0  0
  4  5  1  0  0  0
  5  6  1  0  0  0
  6  7  2  0  0  0
  6  8  1  0  0  0
  8  9  1  0  0  0
  8 35  1  0  0  0
  9 10  1  0  0  0
  9 11  1  0  0  0
  9 16  1  0  0  0
 11 12  1  0  0  0
 11 36  1  0  0  0
 11 37  1  0  0  0
 12 13  1  0  0  0
 12 38  1  0  0  0
 12 39  1  0  0  0
 13 14  2  0  0  0
 13 15  1  0  0  0
 16 17  2  0  0  0
 16 18  1  0  0  0
 19 20  1  0  0  0
 19 40  1  0  0  0
 19 41  1  0  0  0
 20 21  1  0  0  0
 20 23  1  0  0  0
 20 42  1  0  0  0
 21 22  1  0  0  0
 21 43  1  0  0  0
 21 44  1  0  0  0
 22 45  1  0  0  0
 22 46  1  0  0  0
 23 24  1  0  0  0
 23 47  1  0  0  0
 23 48  1  0  0  0
 24 25  1  0  0  0
 25 30  1  0  0  0
 25 26  2  0  0  0
 26 27  1  0  0  0
 26 33  1  0  0  0
 27 28  2  0  0  0
 28 29  1  0  0  0
 28 32  1  0  0  0
 29 30  1  0  0  0
 29 53  1  0  0  0
 30 31  2  0  0  0
 32 49  1  0  0  0
 32 50  1  0  0  0
 33 51  1  0  0  0
 33 52  1  0  0  0
M  CHG  2  15  -1  18  -1
M  END
> <s_st_Chirality_1>
9_S_8_16_11_10

> <s_st_Chirality_2>
20_S_23_19_21_42

> <r_mmffld_Potential_Energy-OPLS_2005>
-19.9588

> <r_mmffld_RMS_Derivative-OPLS_2005>
0.0393326

> <b_mmffld_Minimization_Converged-OPLS_2005>
1

> <i_user_TOTAL_CHARGE>
-2

$$$$
CHEMBL309415
                    3D
 Structure written by MMmdl.
 53 55  0  0  1  0            999 V2000
   -0.1305    1.2056    0.0357 C   0  0  0  0  0  0
    1.1297    1.8763    0.0553 C   0  0  0  0  0  0
    2.1855    1.0153   -0.0993 C   0  0  0  0  0  0
    1.6525   -0.6401   -0.2578 S   0  0  0  0  0  0
   -0.0210   -0.1522   -0.1116 C   0  0  0  0  0  0
   -1.0745   -1.1796   -0.2335 C   0  0  0  0  0  0
   -2.1612   -0.8748   -0.7280 O   0  0  0  0  0  0
   -0.7981   -2.3808    0.2784 N   0  0  0  0  0  0
   -1.6832   -3.5274    0.4135 C   0  0  1  0  0  0
   -2.7169   -3.2403    0.2162 H   0  0  0  0  0  0
   -1.2556   -4.6518   -0.5661 C   0  0  0  0  0  0
   -1.2757   -4.2498   -2.0610 C   0  0  0  0  0  0
   -0.8718   -5.3906   -2.9958 C   0  0  0  0  0  0
    0.2798   -5.3555   -3.4854 O   0  0  0  0  0  0
   -1.7280   -6.2700   -3.2412 O   0  5  0  0  0  0
   -1.5781   -3.9472    1.8916 C   0  0  0  0  0  0
   -0.4731   -3.7503    2.4587 O   0  0  0  0  0  0
   -2.6001   -4.3950    2.4567 O   0  5  0  0  0  0
    3.6269    1.4059   -0.1463 C   0  0  0  0  0  0
    3.8189    2.9364   -0.2885 C   0  0  1  0  0  0
    2.7827    3.7077    0.5644 C   0  0  0  0  0  0
    1.3271    3.3550    0.1957 C   0  0  0  0  0  0
    5.2556    3.3864    0.0356 C   0  0  0  0  0  0
    6.4481    2.8351   -1.2224 S   0  0  0  0  0  0
    7.9730    3.6288   -0.7691 C   0  0  0  0  0  0
    9.1001    2.9881   -0.3836 C   0  0  0  0  0  0
   10.2695    3.6841   -0.0733 N   0  0  0  0  0  0
   10.2720    4.9756   -0.1694 C   0  0  0  0  0  0
    9.1356    5.6814   -0.5758 N   0  0  0  0  0  0
    7.9606    5.0956   -0.8957 C   0  0  0  0  0  0
    7.0070    5.7891   -1.2518 O   0  0  0  0  0  0
   11.3610    5.7685    0.1103 N   0  0  0  0  0  0
    9.2324    1.6227   -0.2541 N   0  0  0  0  0  0
   -1.0764    1.7187    0.1208 H   0  0  0  0  0  0
    0.0075   -2.5079    0.8792 H   0  0  0  0  0  0
   -0.2557   -5.0008   -0.3053 H   0  0  0  0  0  0
   -1.9133   -5.5101   -0.4231 H   0  0  0  0  0  0
   -2.2729   -3.9138   -2.3415 H   0  0  0  0  0  0
   -0.6026   -3.4124   -2.2388 H   0  0  0  0  0  0
    4.1039    1.0549    0.7692 H   0  0  0  0  0  0
    4.1227    0.8857   -0.9667 H   0  0  0  0  0  0
    3.6129    3.1979   -1.3280 H   0  0  0  0  0  0
    2.9462    3.4605    1.6143 H   0  0  0  0  0  0
    2.9286    4.7845    0.4744 H   0  0  0  0  0  0
    1.0674    3.8393   -0.7461 H   0  0  0  0  0  0
    0.6470    3.7607    0.9451 H   0  0  0  0  0  0
    5.2843    4.4737    0.0877 H   0  0  0  0  0  0
    5.5675    3.0186    1.0135 H   0  0  0  0  0  0
   12.2337    5.3591    0.4106 H   0  0  0  0  0  0
   11.4002    6.7725    0.0413 H   0  0  0  0  0  0
    8.4839    1.0011   -0.5326 H   0  0  0  0  0  0
   10.1267    1.1950   -0.0687 H   0  0  0  0  0  0
    9.1531    6.6819   -0.6573 H   0  0  0  0  0  0
  1  5  2  0  0  0
  1  2  1  0  0  0
  1 34  1  0  0  0
  2 22  1  0  0  0
  2  3  2  0  0  0
  3  4  1  0  0  0
  3 19  1  0  0  0
  4  5  1  0  0  0
  5  6  1  0  0  0
  6  7  2  0  0  0
  6  8  1  0  0  0
  8  9  1  0  0  0
  8 35  1  0  0  0
  9 10  1  0  0  0
  9 11  1  0  0  0
  9 16  1  0  0  0
 11 12  1  0  0  0
 11 36  1  0  0  0
 11 37  1  0  0  0
 12 13  1  0  0  0
 12 38  1  0  0  0
 12 39  1  0  0  0
 13 14  2  0  0  0
 13 15  1  0  0  0
 16 17  2  0  0  0
 16 18  1  0  0  0
 19 20  1  0  0  0
 19 40  1  0  0  0
 19 41  1  0  0  0
 20 21  1  0  0  0
 20 23  1  0  0  0
 20 42  1  0  0  0
 21 22  1  0  0  0
 21 43  1  0  0  0
 21 44  1  0  0  0
 22 45  1  0  0  0
 22 46  1  0  0  0
 23 24  1  0  0  0
 23 47  1  0  0  0
 23 48  1  0  0  0
 24 25  1  0  0  0
 25 30  1  0  0  0
 25 26  2  0  0  0
 26 27  1  0  0  0
 26 33  1  0  0  0
 27 28  2  0  0  0
 28 29  1  0  0  0
 28 32  1  0  0  0
 29 30  1  0  0  0
 29 53  1  0  0  0
 30 31  2  0  0  0
 32 49  1  0  0  0
 32 50  1  0  0  0
 33 51  1  0  0  0
 33 52  1  0  0  0
M  CHG  2  15  -1  18  -1
M  END
> <s_st_Chirality_1>
9_S_8_16_11_10

> <s_st_Chirality_2>
20_R_23_19_21_42

> <r_mmffld_Potential_Energy-OPLS_2005>
14.9635

> <r_mmffld_RMS_Derivative-OPLS_2005>
0.0456956

> <b_mmffld_Minimization_Converged-OPLS_2005>
1

> <i_user_TOTAL_CHARGE>
-2

$$$$
